18
0
Au      0.387940541537284      0.654691615482477      0.780240137627305
Au      0.993082928862982      0.920451075174942      0.786249502823608
Au      0.136805154547759      0.610285849804009      0.685039306168511
Au      0.087044820900528      0.462690975217045      0.868712005534886
Au      0.905428851263491      0.925314862773680      0.092697196650056
Au      0.607086497229119      0.865010417854175      0.652708977952403
Au      0.319919495214588      0.038711144295363      0.919792570799252
Au      0.859068446884353      0.653642183576562      0.366249710283747
Au      0.828444615565057      0.814804347088430      0.724714897849123
Au      0.599737426566102      0.319294431971979      0.296594945669580
Au      0.357491403573842      0.326791227356415      0.520054063946896
Au      0.113994120929391      0.721383456956831      0.348046633858669
Au      0.159737811662884      0.254914402168606      0.389292360460470
Au      0.431225402115243      0.782203063854045      0.099776115525242
Au      0.222603381292113      0.293158165551948      0.176683942503921
Au      0.749405691019653      0.109009928595423      0.050877370366285
Au      0.555853231150138      0.736170971227320      0.825077609499810
Au      0.559477967318888      0.326761806722009      0.881901005225269
18
-57.749542
Au     -2.716000000000065      0.184999999999974      0.524000000000001
Au      1.069999999999936      0.162999999999982      2.954000000000008
Au      0.569999999999936      3.085999999999984      0.818000000000012
Au      0.340999999999951     -2.224000000000018     -1.481999999999999
Au     -1.706000000000046      2.334999999999980     -0.382000000000005
Au      2.631999999999948      1.987999999999971     -0.497999999999990
Au      2.694999999999936      2.051999999999964      2.085000000000008
Au      2.884999999999934     -0.297000000000025      0.867999999999995
Au     -1.252000000000066     -0.969000000000023      2.451999999999998
Au      2.715999999999951     -2.328000000000031     -0.645999999999987
Au     -1.320000000000050      1.687999999999960      2.260999999999996
Au      1.818999999999932     -0.144000000000034     -1.812000000000012
Au     -1.212000000000046     -0.041000000000025     -1.778999999999996
Au      0.888999999999953     -2.132000000000033      1.229999999999990
Au      0.682999999999936      2.705999999999960      3.433999999999997
Au     -1.588000000000051     -2.055000000000035      0.111999999999995
Au      0.237999999999943      0.367999999999967      0.383999999999986
Au      0.399999999999949      2.127999999999957     -1.829000000000008
18
-57.749542
Au     -2.716000000000065      0.184999999999974      0.524000000000001
Au      1.069999999999936      0.162999999999982      2.954000000000008
Au      0.569999999999936      3.085999999999984      0.818000000000012
Au      0.340999999999951     -2.224000000000018     -1.481999999999999
Au     -1.706000000000046      2.334999999999980     -0.382000000000005
Au      2.631999999999948      1.987999999999971     -0.497999999999990
Au      2.694999999999936      2.051999999999964      2.085000000000008
Au      2.884999999999934     -0.297000000000025      0.867999999999995
Au     -1.252000000000066     -0.969000000000023      2.451999999999998
Au      2.715999999999951     -2.328000000000031     -0.645999999999987
Au     -1.320000000000050      1.687999999999960      2.260999999999996
Au      1.818999999999932     -0.144000000000034     -1.812000000000012
Au     -1.212000000000046     -0.041000000000025     -1.778999999999996
Au      0.888999999999953     -2.132000000000033      1.229999999999990
Au      0.682999999999936      2.705999999999960      3.433999999999997
Au     -1.588000000000051     -2.055000000000035      0.111999999999995
Au      0.237999999999943      0.367999999999967      0.383999999999986
Au      0.399999999999949      2.127999999999957     -1.829000000000008
18
-57.749542
Au     -2.716000000000065      0.184999999999974      0.524000000000001
Au      1.069999999999936      0.162999999999982      2.954000000000008
Au      0.569999999999936      3.085999999999984      0.818000000000012
Au      0.340999999999951     -2.224000000000018     -1.481999999999999
Au     -1.706000000000046      2.334999999999980     -0.382000000000005
Au      2.631999999999948      1.987999999999971     -0.497999999999990
Au      2.694999999999936      2.051999999999964      2.085000000000008
Au      2.884999999999934     -0.297000000000025      0.867999999999995
Au     -1.252000000000066     -0.969000000000023      2.451999999999998
Au      2.715999999999951     -2.328000000000031     -0.645999999999987
Au     -1.320000000000050      1.687999999999960      2.260999999999996
Au      1.818999999999932     -0.144000000000034     -1.812000000000012
Au     -1.212000000000046     -0.041000000000025     -1.778999999999996
Au      0.888999999999953     -2.132000000000033      1.229999999999990
Au      0.682999999999936      2.705999999999960      3.433999999999997
Au     -1.588000000000051     -2.055000000000035      0.111999999999995
Au      0.237999999999943      0.367999999999967      0.383999999999986
Au      0.399999999999949      2.127999999999957     -1.829000000000008
18
-57.749542
Au     -2.716000000000065      0.184999999999974      0.524000000000001
Au      1.069999999999936      0.162999999999982      2.954000000000008
Au      0.569999999999936      3.085999999999984      0.818000000000012
Au      0.340999999999951     -2.224000000000018     -1.481999999999999
Au     -1.706000000000046      2.334999999999980     -0.382000000000005
Au      2.631999999999948      1.987999999999971     -0.497999999999990
Au      2.694999999999936      2.051999999999964      2.085000000000008
Au      2.884999999999934     -0.297000000000025      0.867999999999995
Au     -1.252000000000066     -0.969000000000023      2.451999999999998
Au      2.715999999999951     -2.328000000000031     -0.645999999999987
Au     -1.320000000000050      1.687999999999960      2.260999999999996
Au      1.818999999999932     -0.144000000000034     -1.812000000000012
Au     -1.212000000000046     -0.041000000000025     -1.778999999999996
Au      0.888999999999953     -2.132000000000033      1.229999999999990
Au      0.682999999999936      2.705999999999960      3.433999999999997
Au     -1.588000000000051     -2.055000000000035      0.111999999999995
Au      0.237999999999943      0.367999999999967      0.383999999999986
Au      0.399999999999949      2.127999999999957     -1.829000000000008
18
-57.749542
Au     -2.716000000000065      0.184999999999974      0.524000000000001
Au      1.069999999999936      0.162999999999982      2.954000000000008
Au      0.569999999999936      3.085999999999984      0.818000000000012
Au      0.340999999999951     -2.224000000000018     -1.481999999999999
Au     -1.706000000000046      2.334999999999980     -0.382000000000005
Au      2.631999999999948      1.987999999999971     -0.497999999999990
Au      2.694999999999936      2.051999999999964      2.085000000000008
Au      2.884999999999934     -0.297000000000025      0.867999999999995
Au     -1.252000000000066     -0.969000000000023      2.451999999999998
Au      2.715999999999951     -2.328000000000031     -0.645999999999987
Au     -1.320000000000050      1.687999999999960      2.260999999999996
Au      1.818999999999932     -0.144000000000034     -1.812000000000012
Au     -1.212000000000046     -0.041000000000025     -1.778999999999996
Au      0.888999999999953     -2.132000000000033      1.229999999999990
Au      0.682999999999936      2.705999999999960      3.433999999999997
Au     -1.588000000000051     -2.055000000000035      0.111999999999995
Au      0.237999999999943      0.367999999999967      0.383999999999986
Au      0.399999999999949      2.127999999999957     -1.829000000000008
18
-57.447646
Au     -0.576000000000050      3.240999999999985     -1.030000000000001
Au      3.133999999999929      1.178999999999974      0.229000000000013
Au      0.557999999999936      1.884999999999962      2.967999999999989
Au     -0.457000000000050      0.840999999999980     -2.135999999999996
Au     -1.110000000000070      3.252999999999957      1.449999999999989
Au      1.452999999999946      3.209999999999980      0.831999999999994
Au      0.016999999999939     -1.539000000000016     -1.049000000000007
Au      2.016999999999939     -0.066000000000031     -1.978000000000009
Au     -2.205000000000069      1.333999999999975     -0.199000000000012
Au     -2.025000000000063      1.097999999999985      2.425999999999988
Au      1.735999999999933      2.437999999999960     -1.677999999999997
Au      0.391999999999939      0.698999999999984      0.496000000000009
Au      2.211999999999932     -0.185000000000031      2.427999999999997
Au     -1.728000000000065     -1.038000000000039      0.895000000000010
Au      4.480999999999938     -0.611000000000018      1.399000000000001
Au     -0.316000000000059     -0.595000000000027      3.212999999999994
Au      0.574999999999932     -2.198000000000036      1.459000000000003
Au      2.595999999999947     -1.532000000000039      0.037000000000006
18
-57.447646
Au     -0.576000000000050      3.240999999999985     -1.030000000000001
Au      3.133999999999929      1.178999999999974      0.229000000000013
Au      0.557999999999936      1.884999999999962      2.967999999999989
Au     -0.457000000000050      0.840999999999980     -2.135999999999996
Au     -1.110000000000070      3.252999999999957      1.449999999999989
Au      1.452999999999946      3.209999999999980      0.831999999999994
Au      0.016999999999939     -1.539000000000016     -1.049000000000007
Au      2.016999999999939     -0.066000000000031     -1.978000000000009
Au     -2.205000000000069      1.333999999999975     -0.199000000000012
Au     -2.025000000000063      1.097999999999985      2.425999999999988
Au      1.735999999999933      2.437999999999960     -1.677999999999997
Au      0.391999999999939      0.698999999999984      0.496000000000009
Au      2.211999999999932     -0.185000000000031      2.427999999999997
Au     -1.728000000000065     -1.038000000000039      0.895000000000010
Au      4.480999999999938     -0.611000000000018      1.399000000000001
Au     -0.316000000000059     -0.595000000000027      3.212999999999994
Au      0.574999999999932     -2.198000000000036      1.459000000000003
Au      2.595999999999947     -1.532000000000039      0.037000000000006
